Version 4
SHEET 1 880 680
WIRE 144 96 64 96
WIRE 320 96 224 96
WIRE 320 112 320 96
WIRE 64 144 64 96
WIRE 64 272 64 224
WIRE 192 272 64 272
WIRE 224 272 192 272
WIRE 320 272 320 192
WIRE 320 272 288 272
FLAG 192 272 0
SYMBOL res 240 80 R90
WINDOW 0 0 56 VBottom 2
WINDOW 3 32 56 VTop 2
SYMATTR InstName R
SYMATTR Value {R}
SYMBOL ind 304 96 R0
SYMATTR InstName L
SYMATTR Value {X}
SYMBOL cap 288 256 R90
WINDOW 0 0 32 VBottom 2
WINDOW 3 11 -1 VTop 2
SYMATTR InstName C
SYMATTR Value {X}
SYMBOL voltage 64 128 R0
WINDOW 123 24 124 Left 2
WINDOW 39 0 0 Left 0
SYMATTR InstName V1
SYMATTR Value ""
SYMATTR Value2 AC 1
TEXT -96 384 Left 2 !.param R = {1/q}
TEXT -96 352 Left 2 !.param X = {1/w}
TEXT -96 320 Left 2 !.param w = {2*pi*f}
TEXT -96 224 Left 2 !.param f=10
TEXT -96 256 Left 2 !.param q=1
TEXT -96 288 Left 2 !.ac dec 1000 1m 1Meg
